#2 4 2 2
#O 178 0.05
#Si 177 0.05
data_FER-2
_audit_creation_date              2014-03-29
_audit_creation_method            'Materials Studio'
_symmetry_space_group_name_H-M    'PNNM'
_symmetry_Int_Tables_number       58
_symmetry_cell_setting            orthorhombic
loop_
_symmetry_equiv_pos_as_xyz
  x,y,z
  -x,-y,z
  -x+1/2,y+1/2,-z+1/2
  x+1/2,-y+1/2,-z+1/2
  -x,-y,-z
  x,y,-z
  x+1/2,-y+1/2,z+1/2
  -x+1/2,y+1/2,z+1/2
_cell_length_a                    14.0703
_cell_length_b                    7.4197
_cell_length_c                    18.7200
_cell_angle_alpha                 90.0000
_cell_angle_beta                  90.0000
_cell_angle_gamma                 90.0000
loop_
_atom_site_label
_atom_site_type_symbol
_atom_site_fract_x
_atom_site_fract_y
_atom_site_fract_z
_atom_site_U_iso_or_equiv
_atom_site_adp_type
_atom_site_occupancy
SI2    Si   -0.00120   0.29050   0.27439   0.01305  Uiso   1.00
SI3    Si    0.19990   0.00370   0.08373   0.01596  Uiso   1.00
SI4    Si    0.20290   0.22550   0.33150   0.01596  Uiso   1.00
SI5    Si    0.79500   0.18940   0.68200   0.00595  Uiso   1.00
O2     O     0.00990   0.17880   0.20270   0.03800  Uiso   1.00
O3     O     0.08990   0.00160   0.10390   0.02900  Uiso   1.00
O4     O     0.78040  -0.02020   0.65600   0.02394  Uiso   1.00
O6     O     0.24940   0.28510   0.25800   0.03103  Uiso   1.00
O7     O     0.24030   0.18290   0.12480   0.02102  Uiso   1.00
O8     O     0.73930   0.16750   0.89940   0.03698  Uiso   1.00
O9     O     0.08790   0.24620   0.32910   0.02799  Uiso   1.00
O10    O     0.90400   0.24770   0.68460   0.02799  Uiso   1.00
SI1    Si    0.00000   0.00000   0.15462   0.01203  Uiso   1.00
O1     O     0.00000   0.50000   0.24790   0.02495  Uiso   1.00
O5     O     0.20900   0.03770   0.00000   0.01102  Uiso   1.00
